pair_style    mace no_domain_decomposition

read_data     dat.lammps
Reading data file ...
  orthogonal box = (0 0 0) to (13.349999 13.349999 13.349999)
  reading atoms ...
  108 atoms

# Use the MACE MP-0b3 medium TorchScript model exported via create_lammps_model
pair_coeff    * *  mace-mp-0b3-medium.model-lammps.pt  Ar

mass           1 39.948

variable dumpdir string /dev/shm/mace_mp0.kpP7Ow

thermo_style  custom step time cpu pe ke etotal temp press vol density
thermo        10

velocity      all create 300.0 12345
fix           myEnse all nvt temp 300.0 300.0 0.1
timestep      5.0e-4

variable chunk equal 2000
variable nloop equal 50
variable i loop 50
label chunk_loop
variable dumpfile string /dev/shm/mace_mp0.kpP7Ow/xyz_1.lammpstrj
dump          myDump all custom 10 /dev/shm/mace_mp0.kpP7Ow/xyz_1.lammpstrj id element xu yu zu
dump_modify   myDump sort id element Ar flush yes
run           2000
Generated 0 of 0 mixed pair_coeff terms from geometric mixing rule
Step          Time           CPU           PotEng         KinEng         TotEng          Temp          Press          Volume        Density
0   0              0             -6.0523682      4.1492507     -1.9031176      300            2079.8981      2379.2701      3.0110926
Averages over the last 101 of 201 rows, steps 1000 to 2000:
PotEng KinEng TotEng Temp Press Volume Density
-5.76288 4.01187 -1.75101 290.067 2581.06 2379.27 3.01109
Loop time of 156.639 on 1 procs for 2000 steps with 108 atoms

undump        myDump
next i
jump SELF chunk_loop
variable dumpfile string /dev/shm/mace_mp0.kpP7Ow/xyz_2.lammpstrj
dump          myDump all custom 10 /dev/shm/mace_mp0.kpP7Ow/xyz_2.lammpstrj id element xu yu zu
dump_modify   myDump sort id element Ar flush yes
run           2000
Generated 0 of 0 mixed pair_coeff terms from geometric mixing rule
Step          Time           CPU           PotEng         KinEng         TotEng          Temp          Press          Volume        Density
2000   1              0             -5.7872953      3.2629124     -2.5243829      235.91578      2242.6595      2379.2701      3.0110926
Averages over the last 101 of 201 rows, steps 3000 to 4000:
PotEng KinEng TotEng Temp Press Volume Density
-5.72591 4.23807 -1.48784 306.422 2745.09 2379.27 3.01109
Loop time of 151.816 on 1 procs for 2000 steps with 108 atoms

undump        myDump
next i
jump SELF chunk_loop
variable dumpfile string /dev/shm/mace_mp0.kpP7Ow/xyz_3.lammpstrj
dump          myDump all custom 10 /dev/shm/mace_mp0.kpP7Ow/xyz_3.lammpstrj id element xu yu zu
dump_modify   myDump sort id element Ar flush yes
run           2000
Generated 0 of 0 mixed pair_coeff terms from geometric mixing rule
Step          Time           CPU           PotEng         KinEng         TotEng          Temp          Press          Volume        Density
4000   2              0             -5.7656123      4.0420161     -1.7235963      292.2467       2504.2807      2379.2701      3.0110926
Averages over the last 101 of 201 rows, steps 5000 to 6000:
PotEng KinEng TotEng Temp Press Volume Density
-5.73213 4.25469 -1.47744 307.623 2841.86 2379.27 3.01109
Loop time of 153.107 on 1 procs for 2000 steps with 108 atoms

undump        myDump
next i
jump SELF chunk_loop
variable dumpfile string /dev/shm/mace_mp0.kpP7Ow/xyz_4.lammpstrj
dump          myDump all custom 10 /dev/shm/mace_mp0.kpP7Ow/xyz_4.lammpstrj id element xu yu zu
dump_modify   myDump sort id element Ar flush yes
run           2000
Generated 0 of 0 mixed pair_coeff terms from geometric mixing rule
Step          Time           CPU           PotEng         KinEng         TotEng          Temp          Press          Volume        Density
6000   3              0             -5.8252219      4.1307827     -1.6944392      298.66472      2511.3847      2379.2701      3.0110926
Averages over the last 101 of 201 rows, steps 7000 to 8000:
PotEng KinEng TotEng Temp Press Volume Density
-5.74562 3.9585 -1.78712 286.208 2618.56 2379.27 3.01109
Loop time of 151.927 on 1 procs for 2000 steps with 108 atoms

undump        myDump
next i
jump SELF chunk_loop
variable dumpfile string /dev/shm/mace_mp0.kpP7Ow/xyz_5.lammpstrj
dump          myDump all custom 10 /dev/shm/mace_mp0.kpP7Ow/xyz_5.lammpstrj id element xu yu zu
dump_modify   myDump sort id element Ar flush yes
run           2000
Generated 0 of 0 mixed pair_coeff terms from geometric mixing rule
Step          Time           CPU           PotEng         KinEng         TotEng          Temp          Press          Volume        Density
8000   4              0             -5.7199821      4.15418       -1.5658021      300.3564       2757.468       2379.2701      3.0110926
Averages over the last 101 of 201 rows, steps 9000 to 10000:
PotEng KinEng TotEng Temp Press Volume Density
-5.80592 4.0344 -1.77152 291.696 2479.98 2379.27 3.01109
Loop time of 153.872 on 1 procs for 2000 steps with 108 atoms

undump        myDump
next i
jump SELF chunk_loop
variable dumpfile string /dev/shm/mace_mp0.kpP7Ow/xyz_6.lammpstrj
dump          myDump all custom 10 /dev/shm/mace_mp0.kpP7Ow/xyz_6.lammpstrj id element xu yu zu
dump_modify   myDump sort id element Ar flush yes
run           2000
Generated 0 of 0 mixed pair_coeff terms from geometric mixing rule
Step          Time           CPU           PotEng         KinEng         TotEng          Temp          Press          Volume        Density
10000   5              0             -5.7253737      3.2769078     -2.4484659      236.92768      2337.2093      2379.2701      3.0110926
Averages over the last 101 of 201 rows, steps 11000 to 12000:
PotEng KinEng TotEng Temp Press Volume Density
-5.74952 4.18875 -1.56077 302.856 2741.56 2379.27 3.01109
Loop time of 154.588 on 1 procs for 2000 steps with 108 atoms

undump        myDump
next i
jump SELF chunk_loop
variable dumpfile string /dev/shm/mace_mp0.kpP7Ow/xyz_7.lammpstrj
dump          myDump all custom 10 /dev/shm/mace_mp0.kpP7Ow/xyz_7.lammpstrj id element xu yu zu
dump_modify   myDump sort id element Ar flush yes
run           2000
Generated 0 of 0 mixed pair_coeff terms from geometric mixing rule
Step          Time           CPU           PotEng         KinEng         TotEng          Temp          Press          Volume        Density
12000   6              0             -5.675371       3.9142694     -1.7611016      283.01034      2895.1193      2379.2701      3.0110926
Averages over the last 101 of 201 rows, steps 13000 to 14000:
PotEng KinEng TotEng Temp Press Volume Density
-5.83368 4.16777 -1.66591 301.339 2471.98 2379.27 3.01109
Loop time of 153.959 on 1 procs for 2000 steps with 108 atoms

undump        myDump
next i
jump SELF chunk_loop
variable dumpfile string /dev/shm/mace_mp0.kpP7Ow/xyz_8.lammpstrj
dump          myDump all custom 10 /dev/shm/mace_mp0.kpP7Ow/xyz_8.lammpstrj id element xu yu zu
dump_modify   myDump sort id element Ar flush yes
run           2000
Generated 0 of 0 mixed pair_coeff terms from geometric mixing rule
Step          Time           CPU           PotEng         KinEng         TotEng          Temp          Press          Volume        Density
14000   7              0             -5.6347409      4.509885      -1.1248559      326.07466      3257.4242      2379.2701      3.0110926
Averages over the last 101 of 201 rows, steps 15000 to 16000:
PotEng KinEng TotEng Temp Press Volume Density
-5.71122 4.20348 -1.50774 303.921 2873.29 2379.27 3.01109
Loop time of 152.81 on 1 procs for 2000 steps with 108 atoms

undump        myDump
next i
jump SELF chunk_loop
variable dumpfile string /dev/shm/mace_mp0.kpP7Ow/xyz_9.lammpstrj
dump          myDump all custom 10 /dev/shm/mace_mp0.kpP7Ow/xyz_9.lammpstrj id element xu yu zu
dump_modify   myDump sort id element Ar flush yes
run           2000
Generated 0 of 0 mixed pair_coeff terms from geometric mixing rule
Step          Time           CPU           PotEng         KinEng         TotEng          Temp          Press          Volume        Density
16000   8              0             -5.681991       4.0935001     -1.5884909      295.96911      2892.4052      2379.2701      3.0110926
Averages over the last 101 of 201 rows, steps 17000 to 18000:
PotEng KinEng TotEng Temp Press Volume Density
-5.77219 4.1951 -1.57709 303.315 2677.26 2379.27 3.01109
Loop time of 151.11 on 1 procs for 2000 steps with 108 atoms

undump        myDump
next i
jump SELF chunk_loop
variable dumpfile string /dev/shm/mace_mp0.kpP7Ow/xyz_10.lammpstrj
dump          myDump all custom 10 /dev/shm/mace_mp0.kpP7Ow/xyz_10.lammpstrj id element xu yu zu
dump_modify   myDump sort id element Ar flush yes
run           2000
Generated 0 of 0 mixed pair_coeff terms from geometric mixing rule
Step          Time           CPU           PotEng         KinEng         TotEng          Temp          Press          Volume        Density
18000   9              0             -5.7004458      3.9797169     -1.7207289      287.74233      2780.1999      2379.2701      3.0110926
Averages over the last 101 of 201 rows, steps 19000 to 20000:
PotEng KinEng TotEng Temp Press Volume Density
-5.83045 4.21476 -1.61569 304.736 2526.41 2379.27 3.01109
Loop time of 153.257 on 1 procs for 2000 steps with 108 atoms

undump        myDump
next i
jump SELF chunk_loop
variable dumpfile string /dev/shm/mace_mp0.kpP7Ow/xyz_11.lammpstrj
dump          myDump all custom 10 /dev/shm/mace_mp0.kpP7Ow/xyz_11.lammpstrj id element xu yu zu
dump_modify   myDump sort id element Ar flush yes
run           2000
Generated 0 of 0 mixed pair_coeff terms from geometric mixing rule
Step          Time           CPU           PotEng         KinEng         TotEng          Temp          Press          Volume        Density
20000   10             0             -5.7918427      4.1316849     -1.6601579      298.72996      2692.6935      2379.2701      3.0110926
Averages over the last 101 of 201 rows, steps 21000 to 22000:
PotEng KinEng TotEng Temp Press Volume Density
-5.76441 3.92415 -1.84026 283.725 2582.38 2379.27 3.01109
Loop time of 153.748 on 1 procs for 2000 steps with 108 atoms

undump        myDump
next i
jump SELF chunk_loop
variable dumpfile string /dev/shm/mace_mp0.kpP7Ow/xyz_12.lammpstrj
dump          myDump all custom 10 /dev/shm/mace_mp0.kpP7Ow/xyz_12.lammpstrj id element xu yu zu
dump_modify   myDump sort id element Ar flush yes
run           2000
Generated 0 of 0 mixed pair_coeff terms from geometric mixing rule
Step          Time           CPU           PotEng         KinEng         TotEng          Temp          Press          Volume        Density
22000   11             0             -5.710809       4.086379      -1.6244299      295.45424      2810.3056      2379.2701      3.0110926
Averages over the last 101 of 201 rows, steps 23000 to 24000:
PotEng KinEng TotEng Temp Press Volume Density
-5.7427 4.10837 -1.63433 297.044 2709.73 2379.27 3.01109
Loop time of 154.287 on 1 procs for 2000 steps with 108 atoms

undump        myDump
next i
jump SELF chunk_loop
variable dumpfile string /dev/shm/mace_mp0.kpP7Ow/xyz_13.lammpstrj
dump          myDump all custom 10 /dev/shm/mace_mp0.kpP7Ow/xyz_13.lammpstrj id element xu yu zu
dump_modify   myDump sort id element Ar flush yes
run           2000
Generated 0 of 0 mixed pair_coeff terms from geometric mixing rule
Step          Time           CPU           PotEng         KinEng         TotEng          Temp          Press          Volume        Density
24000   12             0             -5.7561439      4.23943       -1.5167139      306.52016      2685.0711      2379.2701      3.0110926
Averages over the last 101 of 201 rows, steps 25000 to 26000:
PotEng KinEng TotEng Temp Press Volume Density
-5.72392 4.17856 -1.54536 302.119 2838.98 2379.27 3.01109
Loop time of 153.739 on 1 procs for 2000 steps with 108 atoms

undump        myDump
next i
jump SELF chunk_loop
variable dumpfile string /dev/shm/mace_mp0.kpP7Ow/xyz_14.lammpstrj
dump          myDump all custom 10 /dev/shm/mace_mp0.kpP7Ow/xyz_14.lammpstrj id element xu yu zu
dump_modify   myDump sort id element Ar flush yes
run           2000
Generated 0 of 0 mixed pair_coeff terms from geometric mixing rule
Step          Time           CPU           PotEng         KinEng         TotEng          Temp          Press          Volume        Density
26000   13             0             -5.7470638      4.0982649     -1.6487989      296.31362      2729.018       2379.2701      3.0110926
Averages over the last 101 of 201 rows, steps 27000 to 28000:
PotEng KinEng TotEng Temp Press Volume Density
-5.74098 4.10199 -1.63899 296.583 2720.13 2379.27 3.01109
Loop time of 154.17 on 1 procs for 2000 steps with 108 atoms

undump        myDump
next i
jump SELF chunk_loop
variable dumpfile string /dev/shm/mace_mp0.kpP7Ow/xyz_15.lammpstrj
dump          myDump all custom 10 /dev/shm/mace_mp0.kpP7Ow/xyz_15.lammpstrj id element xu yu zu
dump_modify   myDump sort id element Ar flush yes
run           2000
Generated 0 of 0 mixed pair_coeff terms from geometric mixing rule
Step          Time           CPU           PotEng         KinEng         TotEng          Temp          Press          Volume        Density
28000   14             0             -5.68996        4.1425038     -1.5474561      299.51219      2871.1227      2379.2701      3.0110926
Averages over the last 101 of 201 rows, steps 29000 to 30000:
PotEng KinEng TotEng Temp Press Volume Density
-5.773 3.97784 -1.79517 287.606 2587.54 2379.27 3.01109
Loop time of 153.856 on 1 procs for 2000 steps with 108 atoms

undump        myDump
next i
jump SELF chunk_loop
variable dumpfile string /dev/shm/mace_mp0.kpP7Ow/xyz_16.lammpstrj
dump          myDump all custom 10 /dev/shm/mace_mp0.kpP7Ow/xyz_16.lammpstrj id element xu yu zu
dump_modify   myDump sort id element Ar flush yes
run           2000
Generated 0 of 0 mixed pair_coeff terms from geometric mixing rule
Step          Time           CPU           PotEng         KinEng         TotEng          Temp          Press          Volume        Density
30000   15             0             -5.6521454      3.3662399     -2.2859054      243.38659      2524.3351      2379.2701      3.0110926
Averages over the last 101 of 201 rows, steps 31000 to 32000:
PotEng KinEng TotEng Temp Press Volume Density
-5.71868 4.31169 -1.40699 311.745 2835.46 2379.27 3.01109
Loop time of 152.653 on 1 procs for 2000 steps with 108 atoms

undump        myDump
next i
jump SELF chunk_loop
variable dumpfile string /dev/shm/mace_mp0.kpP7Ow/xyz_17.lammpstrj
dump          myDump all custom 10 /dev/shm/mace_mp0.kpP7Ow/xyz_17.lammpstrj id element xu yu zu
dump_modify   myDump sort id element Ar flush yes
run           2000
Generated 0 of 0 mixed pair_coeff terms from geometric mixing rule
Step          Time           CPU           PotEng         KinEng         TotEng          Temp          Press          Volume        Density
32000   16             0             -5.7364921      4.296705      -1.4397871      310.66128      2875.6745      2379.2701      3.0110926
Averages over the last 101 of 201 rows, steps 33000 to 34000:
PotEng KinEng TotEng Temp Press Volume Density
-5.7532 4.24011 -1.51309 306.569 2803.05 2379.27 3.01109
Loop time of 154.61 on 1 procs for 2000 steps with 108 atoms

undump        myDump
next i
jump SELF chunk_loop
variable dumpfile string /dev/shm/mace_mp0.kpP7Ow/xyz_18.lammpstrj
dump          myDump all custom 10 /dev/shm/mace_mp0.kpP7Ow/xyz_18.lammpstrj id element xu yu zu
dump_modify   myDump sort id element Ar flush yes
run           2000
Generated 0 of 0 mixed pair_coeff terms from geometric mixing rule
Step          Time           CPU           PotEng         KinEng         TotEng          Temp          Press          Volume        Density
34000   17             0             -5.8146901      3.8447264     -1.9699637      277.98223      2401.1056      2379.2701      3.0110926
Averages over the last 101 of 201 rows, steps 35000 to 36000:
PotEng KinEng TotEng Temp Press Volume Density
-5.71172 4.11207 -1.59965 297.312 2753.07 2379.27 3.01109
Loop time of 154.424 on 1 procs for 2000 steps with 108 atoms

undump        myDump
next i
jump SELF chunk_loop
variable dumpfile string /dev/shm/mace_mp0.kpP7Ow/xyz_19.lammpstrj
dump          myDump all custom 10 /dev/shm/mace_mp0.kpP7Ow/xyz_19.lammpstrj id element xu yu zu
dump_modify   myDump sort id element Ar flush yes
run           2000
Generated 0 of 0 mixed pair_coeff terms from geometric mixing rule
Step          Time           CPU           PotEng         KinEng         TotEng          Temp          Press          Volume        Density
36000   18             0             -5.8343543      4.0335002     -1.8008541      291.63099      2349.2115      2379.2701      3.0110926
Averages over the last 101 of 201 rows, steps 37000 to 38000:
PotEng KinEng TotEng Temp Press Volume Density
-5.77381 4.02233 -1.75148 290.823 2543.32 2379.27 3.01109
Loop time of 154.22 on 1 procs for 2000 steps with 108 atoms

undump        myDump
next i
jump SELF chunk_loop
variable dumpfile string /dev/shm/mace_mp0.kpP7Ow/xyz_20.lammpstrj
dump          myDump all custom 10 /dev/shm/mace_mp0.kpP7Ow/xyz_20.lammpstrj id element xu yu zu
dump_modify   myDump sort id element Ar flush yes
run           2000
Generated 0 of 0 mixed pair_coeff terms from geometric mixing rule
Step          Time           CPU           PotEng         KinEng         TotEng          Temp          Press          Volume        Density
38000   19             0             -5.6661636      4.0805642     -1.5855994      295.03382      2926.601       2379.2701      3.0110926
Averages over the last 101 of 201 rows, steps 39000 to 40000:
PotEng KinEng TotEng Temp Press Volume Density
-5.69149 4.06422 -1.62727 293.852 2894.98 2379.27 3.01109
Loop time of 154.1 on 1 procs for 2000 steps with 108 atoms

undump        myDump
next i
jump SELF chunk_loop
variable dumpfile string /dev/shm/mace_mp0.kpP7Ow/xyz_21.lammpstrj
dump          myDump all custom 10 /dev/shm/mace_mp0.kpP7Ow/xyz_21.lammpstrj id element xu yu zu
dump_modify   myDump sort id element Ar flush yes
run           2000
Generated 0 of 0 mixed pair_coeff terms from geometric mixing rule
Step          Time           CPU           PotEng         KinEng         TotEng          Temp          Press          Volume        Density
40000   20             0             -5.5219174      4.0973467     -1.4245708      296.24723      3267.3053      2379.2701      3.0110926
Averages over the last 101 of 201 rows, steps 41000 to 42000:
PotEng KinEng TotEng Temp Press Volume Density
-5.72987 4.1827 -1.54717 302.418 2799.15 2379.27 3.01109
Loop time of 154.329 on 1 procs for 2000 steps with 108 atoms

undump        myDump
next i
jump SELF chunk_loop
variable dumpfile string /dev/shm/mace_mp0.kpP7Ow/xyz_22.lammpstrj
dump          myDump all custom 10 /dev/shm/mace_mp0.kpP7Ow/xyz_22.lammpstrj id element xu yu zu
dump_modify   myDump sort id element Ar flush yes
run           2000
Generated 0 of 0 mixed pair_coeff terms from geometric mixing rule
Step          Time           CPU           PotEng         KinEng         TotEng          Temp          Press          Volume        Density
42000   21             0             -5.5170099      4.4127932     -1.1042167      319.05471      3348.8158      2379.2701      3.0110926
Averages over the last 101 of 201 rows, steps 43000 to 44000:
PotEng KinEng TotEng Temp Press Volume Density
-5.76296 4.31832 -1.44464 312.224 2762.13 2379.27 3.01109
Loop time of 153.461 on 1 procs for 2000 steps with 108 atoms

undump        myDump
next i
jump SELF chunk_loop
variable dumpfile string /dev/shm/mace_mp0.kpP7Ow/xyz_23.lammpstrj
dump          myDump all custom 10 /dev/shm/mace_mp0.kpP7Ow/xyz_23.lammpstrj id element xu yu zu
dump_modify   myDump sort id element Ar flush yes
run           2000
Generated 0 of 0 mixed pair_coeff terms from geometric mixing rule
Step          Time           CPU           PotEng         KinEng         TotEng          Temp          Press          Volume        Density
44000   22             0             -5.7769177      4.1092618     -1.6676558      297.10872      2621.5027      2379.2701      3.0110926
Averages over the last 101 of 201 rows, steps 45000 to 46000:
PotEng KinEng TotEng Temp Press Volume Density
-5.6979 4.13168 -1.56622 298.73 2818.95 2379.27 3.01109
Loop time of 154.179 on 1 procs for 2000 steps with 108 atoms

undump        myDump
next i
jump SELF chunk_loop
variable dumpfile string /dev/shm/mace_mp0.kpP7Ow/xyz_24.lammpstrj
dump          myDump all custom 10 /dev/shm/mace_mp0.kpP7Ow/xyz_24.lammpstrj id element xu yu zu
dump_modify   myDump sort id element Ar flush yes
run           2000
Generated 0 of 0 mixed pair_coeff terms from geometric mixing rule
Step          Time           CPU           PotEng         KinEng         TotEng          Temp          Press          Volume        Density
46000   23             0             -5.6895039      3.8466835     -1.8428204      278.12373      2724.0487      2379.2701      3.0110926
Averages over the last 101 of 201 rows, steps 47000 to 48000:
PotEng KinEng TotEng Temp Press Volume Density
-5.76187 4.22725 -1.53461 305.64 2722.36 2379.27 3.01109
Loop time of 154.962 on 1 procs for 2000 steps with 108 atoms

undump        myDump
next i
jump SELF chunk_loop
variable dumpfile string /dev/shm/mace_mp0.kpP7Ow/xyz_25.lammpstrj
dump          myDump all custom 10 /dev/shm/mace_mp0.kpP7Ow/xyz_25.lammpstrj id element xu yu zu
dump_modify   myDump sort id element Ar flush yes
run           2000
Generated 0 of 0 mixed pair_coeff terms from geometric mixing rule
Step          Time           CPU           PotEng         KinEng         TotEng          Temp          Press          Volume        Density
48000   24             0             -5.7205341      4.4551685     -1.2653656      322.11853      2860.3887      2379.2701      3.0110926
Averages over the last 101 of 201 rows, steps 49000 to 50000:
PotEng KinEng TotEng Temp Press Volume Density
-5.69333 4.06673 -1.6266 294.033 2831.62 2379.27 3.01109
Loop time of 156.103 on 1 procs for 2000 steps with 108 atoms

undump        myDump
next i
jump SELF chunk_loop
variable dumpfile string /dev/shm/mace_mp0.kpP7Ow/xyz_26.lammpstrj
dump          myDump all custom 10 /dev/shm/mace_mp0.kpP7Ow/xyz_26.lammpstrj id element xu yu zu
dump_modify   myDump sort id element Ar flush yes
run           2000
Generated 0 of 0 mixed pair_coeff terms from geometric mixing rule
Step          Time           CPU           PotEng         KinEng         TotEng          Temp          Press          Volume        Density
50000   25             0             -5.7098723      3.8973009     -1.8125714      281.78347      2790.8874      2379.2701      3.0110926
Averages over the last 101 of 201 rows, steps 51000 to 52000:
PotEng KinEng TotEng Temp Press Volume Density
-5.72519 4.07906 -1.64613 294.925 2681.1 2379.27 3.01109
Loop time of 152.5 on 1 procs for 2000 steps with 108 atoms

undump        myDump
next i
jump SELF chunk_loop
variable dumpfile string /dev/shm/mace_mp0.kpP7Ow/xyz_27.lammpstrj
dump          myDump all custom 10 /dev/shm/mace_mp0.kpP7Ow/xyz_27.lammpstrj id element xu yu zu
dump_modify   myDump sort id element Ar flush yes
run           2000
Generated 0 of 0 mixed pair_coeff terms from geometric mixing rule
Step          Time           CPU           PotEng         KinEng         TotEng          Temp          Press          Volume        Density
52000   26             0             -5.7051025      3.8483005     -1.856802       278.24064      2660.3449      2379.2701      3.0110926
Averages over the last 101 of 201 rows, steps 53000 to 54000:
PotEng KinEng TotEng Temp Press Volume Density
-5.76501 4.25589 -1.50913 307.71 2687.55 2379.27 3.01109
Loop time of 154.396 on 1 procs for 2000 steps with 108 atoms

undump        myDump
next i
jump SELF chunk_loop
variable dumpfile string /dev/shm/mace_mp0.kpP7Ow/xyz_28.lammpstrj
dump          myDump all custom 10 /dev/shm/mace_mp0.kpP7Ow/xyz_28.lammpstrj id element xu yu zu
dump_modify   myDump sort id element Ar flush yes
run           2000
Generated 0 of 0 mixed pair_coeff terms from geometric mixing rule
Step          Time           CPU           PotEng         KinEng         TotEng          Temp          Press          Volume        Density
54000   27             0             -5.7079791      4.3800787     -1.3279004      316.68938      2916.886       2379.2701      3.0110926
Averages over the last 101 of 201 rows, steps 55000 to 56000:
PotEng KinEng TotEng Temp Press Volume Density
-5.75473 4.1963 -1.55842 303.402 2781.25 2379.27 3.01109
Loop time of 154.395 on 1 procs for 2000 steps with 108 atoms

undump        myDump
next i
jump SELF chunk_loop
variable dumpfile string /dev/shm/mace_mp0.kpP7Ow/xyz_29.lammpstrj
dump          myDump all custom 10 /dev/shm/mace_mp0.kpP7Ow/xyz_29.lammpstrj id element xu yu zu
dump_modify   myDump sort id element Ar flush yes
run           2000
Generated 0 of 0 mixed pair_coeff terms from geometric mixing rule
Step          Time           CPU           PotEng         KinEng         TotEng          Temp          Press          Volume        Density
56000   28             0             -5.693103       3.9915173     -1.7015858      288.59553      2843.3221      2379.2701      3.0110926
Averages over the last 101 of 201 rows, steps 57000 to 58000:
PotEng KinEng TotEng Temp Press Volume Density
-5.69751 4.10975 -1.58776 297.144 2794.79 2379.27 3.01109
Loop time of 152.881 on 1 procs for 2000 steps with 108 atoms

undump        myDump
next i
jump SELF chunk_loop
variable dumpfile string /dev/shm/mace_mp0.kpP7Ow/xyz_30.lammpstrj
dump          myDump all custom 10 /dev/shm/mace_mp0.kpP7Ow/xyz_30.lammpstrj id element xu yu zu
dump_modify   myDump sort id element Ar flush yes
run           2000
Generated 0 of 0 mixed pair_coeff terms from geometric mixing rule
Step          Time           CPU           PotEng         KinEng         TotEng          Temp          Press          Volume        Density
58000   29             0             -5.7707951      4.2952575     -1.4755376      310.55662      2712.141       2379.2701      3.0110926
Averages over the last 101 of 201 rows, steps 59000 to 60000:
PotEng KinEng TotEng Temp Press Volume Density
-5.71691 4.21724 -1.49967 304.915 2825.89 2379.27 3.01109
Loop time of 152.047 on 1 procs for 2000 steps with 108 atoms

undump        myDump
next i
jump SELF chunk_loop
variable dumpfile string /dev/shm/mace_mp0.kpP7Ow/xyz_31.lammpstrj
dump          myDump all custom 10 /dev/shm/mace_mp0.kpP7Ow/xyz_31.lammpstrj id element xu yu zu
dump_modify   myDump sort id element Ar flush yes
run           2000
Generated 0 of 0 mixed pair_coeff terms from geometric mixing rule
Step          Time           CPU           PotEng         KinEng         TotEng          Temp          Press          Volume        Density
60000   30             0             -5.7380039      3.7630361     -1.9749678      272.07583      2599.8301      2379.2701      3.0110926
Averages over the last 101 of 201 rows, steps 61000 to 62000:
PotEng KinEng TotEng Temp Press Volume Density
-5.77035 4.18135 -1.589 302.321 2668.52 2379.27 3.01109
Loop time of 154.418 on 1 procs for 2000 steps with 108 atoms

undump        myDump
next i
jump SELF chunk_loop
variable dumpfile string /dev/shm/mace_mp0.kpP7Ow/xyz_32.lammpstrj
dump          myDump all custom 10 /dev/shm/mace_mp0.kpP7Ow/xyz_32.lammpstrj id element xu yu zu
dump_modify   myDump sort id element Ar flush yes
run           2000
Generated 0 of 0 mixed pair_coeff terms from geometric mixing rule
Step          Time           CPU           PotEng         KinEng         TotEng          Temp          Press          Volume        Density
62000   31             0             -5.8459092      3.7722097     -2.0736995      272.7391       2199.9233      2379.2701      3.0110926
Averages over the last 101 of 201 rows, steps 63000 to 64000:
PotEng KinEng TotEng Temp Press Volume Density
-5.70201 4.32386 -1.37815 312.625 2917.63 2379.27 3.01109
Loop time of 154.038 on 1 procs for 2000 steps with 108 atoms

undump        myDump
next i
jump SELF chunk_loop
variable dumpfile string /dev/shm/mace_mp0.kpP7Ow/xyz_33.lammpstrj
dump          myDump all custom 10 /dev/shm/mace_mp0.kpP7Ow/xyz_33.lammpstrj id element xu yu zu
dump_modify   myDump sort id element Ar flush yes
run           2000
Generated 0 of 0 mixed pair_coeff terms from geometric mixing rule
Step          Time           CPU           PotEng         KinEng         TotEng          Temp          Press          Volume        Density
64000   32             0             -5.6178515      3.8264413     -1.7914102      276.66017      2990.6604      2379.2701      3.0110926
Averages over the last 101 of 201 rows, steps 65000 to 66000:
PotEng KinEng TotEng Temp Press Volume Density
-5.77822 4.05329 -1.72493 293.062 2555.53 2379.27 3.01109
Loop time of 153.526 on 1 procs for 2000 steps with 108 atoms

undump        myDump
next i
jump SELF chunk_loop
variable dumpfile string /dev/shm/mace_mp0.kpP7Ow/xyz_34.lammpstrj
dump          myDump all custom 10 /dev/shm/mace_mp0.kpP7Ow/xyz_34.lammpstrj id element xu yu zu
dump_modify   myDump sort id element Ar flush yes
run           2000
Generated 0 of 0 mixed pair_coeff terms from geometric mixing rule
Step          Time           CPU           PotEng         KinEng         TotEng          Temp          Press          Volume        Density
66000   33             0             -5.8405342      4.6279583     -1.2125759      334.61162      2655.0356      2379.2701      3.0110926
Averages over the last 101 of 201 rows, steps 67000 to 68000:
PotEng KinEng TotEng Temp Press Volume Density
-5.77637 4.27056 -1.50581 308.771 2649.57 2379.27 3.01109
Loop time of 153.617 on 1 procs for 2000 steps with 108 atoms

undump        myDump
next i
jump SELF chunk_loop
variable dumpfile string /dev/shm/mace_mp0.kpP7Ow/xyz_35.lammpstrj
dump          myDump all custom 10 /dev/shm/mace_mp0.kpP7Ow/xyz_35.lammpstrj id element xu yu zu
dump_modify   myDump sort id element Ar flush yes
run           2000
Generated 0 of 0 mixed pair_coeff terms from geometric mixing rule
Step          Time           CPU           PotEng         KinEng         TotEng          Temp          Press          Volume        Density
68000   34             0             -5.704101       4.2747454     -1.4293556      309.07355      2966.0569      2379.2701      3.0110926
Averages over the last 101 of 201 rows, steps 69000 to 70000:
PotEng KinEng TotEng Temp Press Volume Density
-5.75231 4.31188 -1.44043 311.759 2789.39 2379.27 3.01109
Loop time of 153.139 on 1 procs for 2000 steps with 108 atoms

undump        myDump
next i
jump SELF chunk_loop
variable dumpfile string /dev/shm/mace_mp0.kpP7Ow/xyz_36.lammpstrj
dump          myDump all custom 10 /dev/shm/mace_mp0.kpP7Ow/xyz_36.lammpstrj id element xu yu zu
dump_modify   myDump sort id element Ar flush yes
run           2000
Generated 0 of 0 mixed pair_coeff terms from geometric mixing rule
Step          Time           CPU           PotEng         KinEng         TotEng          Temp          Press          Volume        Density
70000   35             0             -5.6041788      4.2118879     -1.3922909      304.52881      3112.8658      2379.2701      3.0110926
Averages over the last 101 of 201 rows, steps 71000 to 72000:
PotEng KinEng TotEng Temp Press Volume Density
-5.75341 4.01053 -1.74288 289.97 2615.4 2379.27 3.01109
Loop time of 154.17 on 1 procs for 2000 steps with 108 atoms

undump        myDump
next i
jump SELF chunk_loop
variable dumpfile string /dev/shm/mace_mp0.kpP7Ow/xyz_37.lammpstrj
dump          myDump all custom 10 /dev/shm/mace_mp0.kpP7Ow/xyz_37.lammpstrj id element xu yu zu
dump_modify   myDump sort id element Ar flush yes
run           2000
Generated 0 of 0 mixed pair_coeff terms from geometric mixing rule
Step          Time           CPU           PotEng         KinEng         TotEng          Temp          Press          Volume        Density
72000   36             0             -5.6338083      3.8281498     -1.8056585      276.7837       2875.4509      2379.2701      3.0110926
Averages over the last 101 of 201 rows, steps 73000 to 74000:
PotEng KinEng TotEng Temp Press Volume Density
-5.75055 4.1894 -1.56115 302.903 2675.17 2379.27 3.01109
Loop time of 155.051 on 1 procs for 2000 steps with 108 atoms

undump        myDump
next i
jump SELF chunk_loop
variable dumpfile string /dev/shm/mace_mp0.kpP7Ow/xyz_38.lammpstrj
dump          myDump all custom 10 /dev/shm/mace_mp0.kpP7Ow/xyz_38.lammpstrj id element xu yu zu
dump_modify   myDump sort id element Ar flush yes
run           2000
Generated 0 of 0 mixed pair_coeff terms from geometric mixing rule
Step          Time           CPU           PotEng         KinEng         TotEng          Temp          Press          Volume        Density
74000   37             0             -5.7837931      3.807651      -1.9761421      275.30159      2350.5735      2379.2701      3.0110926
Averages over the last 101 of 201 rows, steps 75000 to 76000:
PotEng KinEng TotEng Temp Press Volume Density
-5.68901 4.27469 -1.41432 309.069 2948.08 2379.27 3.01109
Loop time of 154.8 on 1 procs for 2000 steps with 108 atoms

undump        myDump
next i
jump SELF chunk_loop
variable dumpfile string /dev/shm/mace_mp0.kpP7Ow/xyz_39.lammpstrj
dump          myDump all custom 10 /dev/shm/mace_mp0.kpP7Ow/xyz_39.lammpstrj id element xu yu zu
dump_modify   myDump sort id element Ar flush yes
run           2000
Generated 0 of 0 mixed pair_coeff terms from geometric mixing rule
Step          Time           CPU           PotEng         KinEng         TotEng          Temp          Press          Volume        Density
76000   38             0             -5.7709243      3.8950855     -1.8758388      281.6233       2593.0049      2379.2701      3.0110926
Averages over the last 101 of 201 rows, steps 77000 to 78000:
PotEng KinEng TotEng Temp Press Volume Density
-5.69114 4.13865 -1.55249 299.233 2867.94 2379.27 3.01109
Loop time of 154.765 on 1 procs for 2000 steps with 108 atoms

undump        myDump
next i
jump SELF chunk_loop
variable dumpfile string /dev/shm/mace_mp0.kpP7Ow/xyz_40.lammpstrj
dump          myDump all custom 10 /dev/shm/mace_mp0.kpP7Ow/xyz_40.lammpstrj id element xu yu zu
dump_modify   myDump sort id element Ar flush yes
run           2000
Generated 0 of 0 mixed pair_coeff terms from geometric mixing rule
Step          Time           CPU           PotEng         KinEng         TotEng          Temp          Press          Volume        Density
78000   39             0             -5.750888       4.2505858     -1.5003022      307.32675      2822.5096      2379.2701      3.0110926
Averages over the last 101 of 201 rows, steps 79000 to 80000:
PotEng KinEng TotEng Temp Press Volume Density
-5.7435 4.20192 -1.54157 303.808 2713.92 2379.27 3.01109
Loop time of 156.141 on 1 procs for 2000 steps with 108 atoms

undump        myDump
next i
jump SELF chunk_loop
variable dumpfile string /dev/shm/mace_mp0.kpP7Ow/xyz_41.lammpstrj
dump          myDump all custom 10 /dev/shm/mace_mp0.kpP7Ow/xyz_41.lammpstrj id element xu yu zu
dump_modify   myDump sort id element Ar flush yes
run           2000
Generated 0 of 0 mixed pair_coeff terms from geometric mixing rule
Loop time of 154.921 on 1 procs for 2000 steps with 108 atoms

undump        myDump
next i
jump SELF chunk_loop
variable dumpfile string /dev/shm/mace_mp0.kpP7Ow/xyz_42.lammpstrj
dump          myDump all custom 10 /dev/shm/mace_mp0.kpP7Ow/xyz_42.lammpstrj id element xu yu zu
dump_modify   myDump sort id element Ar flush yes
run           2000
Generated 0 of 0 mixed pair_coeff terms from geometric mixing rule
Loop time of 153.78 on 1 procs for 2000 steps with 108 atoms

undump        myDump
next i
jump SELF chunk_loop
variable dumpfile string /dev/shm/mace_mp0.kpP7Ow/xyz_43.lammpstrj
dump          myDump all custom 10 /dev/shm/mace_mp0.kpP7Ow/xyz_43.lammpstrj id element xu yu zu
dump_modify   myDump sort id element Ar flush yes
run           2000
Generated 0 of 0 mixed pair_coeff terms from geometric mixing rule
Loop time of 152.346 on 1 procs for 2000 steps with 108 atoms

undump        myDump
next i
jump SELF chunk_loop
variable dumpfile string /dev/shm/mace_mp0.kpP7Ow/xyz_44.lammpstrj
dump          myDump all custom 10 /dev/shm/mace_mp0.kpP7Ow/xyz_44.lammpstrj id element xu yu zu
dump_modify   myDump sort id element Ar flush yes
run           2000
Generated 0 of 0 mixed pair_coeff terms from geometric mixing rule
Loop time of 152.858 on 1 procs for 2000 steps with 108 atoms

undump        myDump
next i
jump SELF chunk_loop
variable dumpfile string /dev/shm/mace_mp0.kpP7Ow/xyz_45.lammpstrj
dump          myDump all custom 10 /dev/shm/mace_mp0.kpP7Ow/xyz_45.lammpstrj id element xu yu zu
dump_modify   myDump sort id element Ar flush yes
run           2000
Generated 0 of 0 mixed pair_coeff terms from geometric mixing rule
Loop time of 153.722 on 1 procs for 2000 steps with 108 atoms

undump        myDump
next i
jump SELF chunk_loop
variable dumpfile string /dev/shm/mace_mp0.kpP7Ow/xyz_46.lammpstrj
dump          myDump all custom 10 /dev/shm/mace_mp0.kpP7Ow/xyz_46.lammpstrj id element xu yu zu
dump_modify   myDump sort id element Ar flush yes
run           2000
Generated 0 of 0 mixed pair_coeff terms from geometric mixing rule
Loop time of 153.056 on 1 procs for 2000 steps with 108 atoms

undump        myDump
next i
jump SELF chunk_loop
variable dumpfile string /dev/shm/mace_mp0.kpP7Ow/xyz_47.lammpstrj
dump          myDump all custom 10 /dev/shm/mace_mp0.kpP7Ow/xyz_47.lammpstrj id element xu yu zu
dump_modify   myDump sort id element Ar flush yes
run           2000
Generated 0 of 0 mixed pair_coeff terms from geometric mixing rule
Loop time of 153.642 on 1 procs for 2000 steps with 108 atoms

undump        myDump
next i
jump SELF chunk_loop
variable dumpfile string /dev/shm/mace_mp0.kpP7Ow/xyz_48.lammpstrj
dump          myDump all custom 10 /dev/shm/mace_mp0.kpP7Ow/xyz_48.lammpstrj id element xu yu zu
dump_modify   myDump sort id element Ar flush yes
run           2000
Generated 0 of 0 mixed pair_coeff terms from geometric mixing rule
Loop time of 152.449 on 1 procs for 2000 steps with 108 atoms

undump        myDump
next i
jump SELF chunk_loop
variable dumpfile string /dev/shm/mace_mp0.kpP7Ow/xyz_49.lammpstrj
dump          myDump all custom 10 /dev/shm/mace_mp0.kpP7Ow/xyz_49.lammpstrj id element xu yu zu
dump_modify   myDump sort id element Ar flush yes
run           2000
Generated 0 of 0 mixed pair_coeff terms from geometric mixing rule
Loop time of 153.158 on 1 procs for 2000 steps with 108 atoms

undump        myDump
next i
jump SELF chunk_loop
variable dumpfile string /dev/shm/mace_mp0.kpP7Ow/xyz_50.lammpstrj
dump          myDump all custom 10 /dev/shm/mace_mp0.kpP7Ow/xyz_50.lammpstrj id element xu yu zu
dump_modify   myDump sort id element Ar flush yes
run           2000
Generated 0 of 0 mixed pair_coeff terms from geometric mixing rule
Loop time of 154.536 on 1 procs for 2000 steps with 108 atoms

undump        myDump
next i
jump SELF chunk_loop
